3iPrPh3P_101_opt.log
 OpenBabel09032011033D
Gaussian 16 #p opt freq PBE1PBE/6-31+g*
 62 64  0  0  0  0  0  0  0  0999 V2000
   -5.4532   -2.5861   -0.2982 C   0  0  0  0  0  0  0  0  0  0  0  0
   -5.1480   -1.3700    0.5818 C   0  0  0  0  0  0  0  0  0  0  0  0
   -5.6840   -0.0841   -0.0547 C   0  0  0  0  0  0  0  0  0  0  0  0
   -3.6686   -1.2673    0.8933 C   0  0  0  0  0  0  0  0  0  0  0  0
   -2.7288   -1.0662   -0.1231 C   0  0  0  0  0  0  0  0  0  0  0  0
   -1.3635   -0.9794    0.1596 C   0  0  0  0  0  0  0  0  0  0  0  0
   -0.9157   -1.1128    1.4780 C   0  0  0  0  0  0  0  0  0  0  0  0
   -1.8409   -1.3107    2.4989 C   0  0  0  0  0  0  0  0  0  0  0  0
   -3.2021   -1.3828    2.2060 C   0  0  0  0  0  0  0  0  0  0  0  0
   -0.2551   -0.6909   -1.2584 P   0  0  0  0  0  0  0  0  0  0  0  0
   -0.8029   -1.2491   -2.5409 O   0  0  0  0  0  0  0  0  0  0  0  0
    0.0123    1.1106   -1.3339 C   0  0  0  0  0  0  0  0  0  0  0  0
    0.3505    1.6485   -2.5810 C   0  0  0  0  0  0  0  0  0  0  0  0
    0.5824    3.0146   -2.6967 C   0  0  0  0  0  0  0  0  0  0  0  0
    0.4736    3.8417   -1.5788 C   0  0  0  0  0  0  0  0  0  0  0  0
    0.1243    3.3269   -0.3279 C   0  0  0  0  0  0  0  0  0  0  0  0
   -0.1063    1.9498   -0.2243 C   0  0  0  0  0  0  0  0  0  0  0  0
   -0.0153    4.2364    0.8766 C   0  0  0  0  0  0  0  0  0  0  0  0
    0.9737    3.8679    1.9866 C   0  0  0  0  0  0  0  0  0  0  0  0
   -1.4522    4.2533    1.4072 C   0  0  0  0  0  0  0  0  0  0  0  0
    1.3515   -1.4204   -0.8038 C   0  0  0  0  0  0  0  0  0  0  0  0
    1.5945   -2.7300   -1.2259 C   0  0  0  0  0  0  0  0  0  0  0  0
    2.8000   -3.3440   -0.8956 C   0  0  0  0  0  0  0  0  0  0  0  0
    3.7587   -2.6580   -0.1544 C   0  0  0  0  0  0  0  0  0  0  0  0
    3.5401   -1.3412    0.2674 C   0  0  0  0  0  0  0  0  0  0  0  0
    2.3264   -0.7365   -0.0702 C   0  0  0  0  0  0  0  0  0  0  0  0
    4.5883   -0.5788    1.0532 C   0  0  0  0  0  0  0  0  0  0  0  0
    5.8682   -0.3748    0.2368 C   0  0  0  0  0  0  0  0  0  0  0  0
    4.8956   -1.2511    2.3946 C   0  0  0  0  0  0  0  0  0  0  0  0
   -5.0994   -3.5129    0.1666 H   0  0  0  0  0  0  0  0  0  0  0  0
   -6.5330   -2.6775   -0.4664 H   0  0  0  0  0  0  0  0  0  0  0  0
   -4.9688   -2.4981   -1.2779 H   0  0  0  0  0  0  0  0  0  0  0  0
   -5.6696   -1.5109    1.5392 H   0  0  0  0  0  0  0  0  0  0  0  0
   -5.4905    0.7867    0.5815 H   0  0  0  0  0  0  0  0  0  0  0  0
   -5.2156    0.1019   -1.0285 H   0  0  0  0  0  0  0  0  0  0  0  0
   -6.7663   -0.1572   -0.2151 H   0  0  0  0  0  0  0  0  0  0  0  0
   -3.0468   -0.9922   -1.1612 H   0  0  0  0  0  0  0  0  0  0  0  0
    0.1476   -1.0814    1.7042 H   0  0  0  0  0  0  0  0  0  0  0  0
   -1.5009   -1.4200    3.5260 H   0  0  0  0  0  0  0  0  0  0  0  0
   -3.9163   -1.5427    3.0120 H   0  0  0  0  0  0  0  0  0  0  0  0
    0.4102    0.9954   -3.4479 H   0  0  0  0  0  0  0  0  0  0  0  0
    0.8424    3.4410   -3.6625 H   0  0  0  0  0  0  0  0  0  0  0  0
    0.6537    4.9105   -1.6820 H   0  0  0  0  0  0  0  0  0  0  0  0
   -0.4003    1.5270    0.7346 H   0  0  0  0  0  0  0  0  0  0  0  0
    0.2276    5.2542    0.5401 H   0  0  0  0  0  0  0  0  0  0  0  0
    0.8999    4.5770    2.8198 H   0  0  0  0  0  0  0  0  0  0  0  0
    0.7677    2.8669    2.3852 H   0  0  0  0  0  0  0  0  0  0  0  0
    2.0063    3.8782    1.6200 H   0  0  0  0  0  0  0  0  0  0  0  0
   -1.5477    4.9618    2.2388 H   0  0  0  0  0  0  0  0  0  0  0  0
   -2.1614    4.5457    0.6251 H   0  0  0  0  0  0  0  0  0  0  0  0
   -1.7508    3.2645    1.7757 H   0  0  0  0  0  0  0  0  0  0  0  0
    0.8481   -3.2482   -1.8225 H   0  0  0  0  0  0  0  0  0  0  0  0
    2.9965   -4.3617   -1.2241 H   0  0  0  0  0  0  0  0  0  0  0  0
    4.6959   -3.1544    0.0893 H   0  0  0  0  0  0  0  0  0  0  0  0
    2.1503    0.2954    0.2306 H   0  0  0  0  0  0  0  0  0  0  0  0
    4.1694    0.4147    1.2672 H   0  0  0  0  0  0  0  0  0  0  0  0
    5.6584    0.1305   -0.7121 H   0  0  0  0  0  0  0  0  0  0  0  0
    6.3484   -1.3335    0.0063 H   0  0  0  0  0  0  0  0  0  0  0  0
    6.5899    0.2322    0.7965 H   0  0  0  0  0  0  0  0  0  0  0  0
    5.6087   -0.6507    2.9719 H   0  0  0  0  0  0  0  0  0  0  0  0
    3.9882   -1.3761    2.9959 H   0  0  0  0  0  0  0  0  0  0  0  0
    5.3392   -2.2436    2.2497 H   0  0  0  0  0  0  0  0  0  0  0  0
  1 30  1  0  0  0  0
  1  2  1  0  0  0  0
  2  4  1  0  0  0  0
  2 33  1  0  0  0  0
  3 34  1  0  0  0  0
  3  2  1  0  0  0  0
  4  9  2  0  0  0  0
  5  6  2  0  0  0  0
  5  4  1  0  0  0  0
  6  7  1  0  0  0  0
  7 38  1  0  0  0  0
  7  8  2  0  0  0  0
  8 39  1  0  0  0  0
  9  8  1  0  0  0  0
  9 40  1  0  0  0  0
 10 21  1  0  0  0  0
 10  6  1  0  0  0  0
 11 10  2  0  0  0  0
 12 10  1  0  0  0  0
 12 17  2  0  0  0  0
 13 12  1  0  0  0  0
 14 13  2  0  0  0  0
 14 15  1  0  0  0  0
 15 16  2  0  0  0  0
 16 17  1  0  0  0  0
 16 18  1  0  0  0  0
 17 44  1  0  0  0  0
 18 20  1  0  0  0  0
 18 19  1  0  0  0  0
 19 47  1  0  0  0  0
 19 46  1  0  0  0  0
 20 51  1  0  0  0  0
 20 49  1  0  0  0  0
 21 26  2  0  0  0  0
 22 23  2  0  0  0  0
 22 21  1  0  0  0  0
 23 24  1  0  0  0  0
 24 54  1  0  0  0  0
 24 25  2  0  0  0  0
 25 27  1  0  0  0  0
 26 55  1  0  0  0  0
 26 25  1  0  0  0  0
 27 56  1  0  0  0  0
 27 29  1  0  0  0  0
 28 59  1  0  0  0  0
 28 27  1  0  0  0  0
 29 60  1  0  0  0  0
 29 61  1  0  0  0  0
 31  1  1  0  0  0  0
 32  1  1  0  0  0  0
 35  3  1  0  0  0  0
 36  3  1  0  0  0  0
 37  5  1  0  0  0  0
 41 13  1  0  0  0  0
 42 14  1  0  0  0  0
 43 15  1  0  0  0  0
 45 18  1  0  0  0  0
 48 19  1  0  0  0  0
 50 20  1  0  0  0  0
 52 22  1  0  0  0  0
 53 23  1  0  0  0  0
 57 28  1  0  0  0  0
 58 28  1  0  0  0  0
 62 29  1  0  0  0  0
M  END
